
**** 08/28/22 03:42:11 ********* PSpice 9.2 (Mar 2000) ******** ID# 0 ********

 * C:\Users\HP\Desktop\208 project\Integral.sch


 ****     CIRCUIT DESCRIPTION


******************************************************************************




* Schematics Version 9.2
* Sun Aug 28 03:42:08 2022


.PARAM         RVAR=100k 

** Analysis setup **
.tran 100u 400m 0 100u
.STEP LIN PARAM RVAR 1k 100k 20k 


* From [PSPICE NETLIST] section of C:\Program Files\Orcad\PSpice\PSpice.ini:
.lib "nom.lib"

.INC "Integral.net"



**** INCLUDING Integral.net ****
* Schematics Netlist *



V_V4         POS 0 20V
V_V5         0 NEG 20V
C_C2         $N_0001 $N_0002  1u  
X_U3         0 $N_0001 POS NEG $N_0002 uA741
X_U2         0 $N_0005 POS NEG $N_0006 uA741
R_R9         $N_0010 $N_0009  10k  
X_U4         0 $N_0010 POS NEG $N_0009 uA741
R_R10         $N_0009 $N_0013  10k  
R_R11         $N_0013 output  10k  
C_C4         output 0  1u  
C_C3         $N_0013 0  1u  
X_U1         0 $N_0014 POS NEG $N_0015 uA741
R_R2         ERROR $N_0014  1k  
R_R1         $N_0014 $N_0015  1k  
R_R4         $N_0018 $N_0005  200  
C_C1         ERROR $N_0018  0.1u  
R_R3         $N_0005 $N_0006  10k  
R_R26         $N_0020 $N_0019  10k  
R_R27         output $N_0021  10k  
R_R28         $N_0019 0  10k  
X_U8         $N_0019 $N_0021 POS NEG ERROR uA741
V_Set_point         $N_0020 0  
+PULSE 0 1 10m 1n 1n 100m 200m
R_R29         $N_0021 ERROR  10k  
R_R6         $N_0015 $N_0010  100  
R_R5         ERROR $N_0001  {RVAR}  
R_R8         $N_0002 $N_0010  100  
R_R7         $N_0006 $N_0010  100T  

**** RESUMING Integral.cir ****
.PROBE V(*) I(*) W(*) D(*) NOISE(*) 


.END

**** 08/28/22 03:42:11 ********* PSpice 9.2 (Mar 2000) ******** ID# 0 ********

 * C:\Users\HP\Desktop\208 project\Integral.sch


 ****     Diode MODEL PARAMETERS


******************************************************************************




               X_U3.dx         X_U3.dy         X_U2.dx         X_U2.dy         
          IS  800.000000E-18  800.000000E-18  800.000000E-18  800.000000E-18 
          RS    1               1.000000E-03    1               1.000000E-03 
         CJO                   10.000000E-12                   10.000000E-12 


               X_U4.dx         X_U4.dy         X_U1.dx         X_U1.dy         
          IS  800.000000E-18  800.000000E-18  800.000000E-18  800.000000E-18 
          RS    1               1.000000E-03    1               1.000000E-03 
         CJO                   10.000000E-12                   10.000000E-12 


               X_U8.dx         X_U8.dy         
          IS  800.000000E-18  800.000000E-18 
          RS    1               1.000000E-03 
         CJO                   10.000000E-12 


**** 08/28/22 03:42:11 ********* PSpice 9.2 (Mar 2000) ******** ID# 0 ********

 * C:\Users\HP\Desktop\208 project\Integral.sch


 ****     BJT MODEL PARAMETERS


******************************************************************************




               X_U3.qx         X_U2.qx         X_U4.qx         X_U1.qx         
               NPN             NPN             NPN             NPN             
          IS  800.000000E-18  800.000000E-18  800.000000E-18  800.000000E-18 
          BF   93.75           93.75           93.75           93.75         
          NF    1               1               1               1            
          BR    1               1               1               1            
          NR    1               1               1               1            
          CN    2.42            2.42            2.42            2.42         
           D     .87             .87             .87             .87         


               X_U8.qx         
               NPN             
          IS  800.000000E-18 
          BF   93.75         
          NF    1            
          BR    1            
          NR    1            
          CN    2.42         
           D     .87         


**** 08/28/22 03:42:11 ********* PSpice 9.2 (Mar 2000) ******** ID# 0 ********

 * C:\Users\HP\Desktop\208 project\Integral.sch


 ****     INITIAL TRANSIENT SOLUTION       TEMPERATURE =   27.000 DEG C

 ****     CURRENT STEP                     PARAM RVAR =    1.0000E+03


******************************************************************************



 NODE   VOLTAGE     NODE   VOLTAGE     NODE   VOLTAGE     NODE   VOLTAGE


(  NEG)  -20.0000  (  POS)   20.0000  (ERROR) 99.01E-06  (output)-60.09E-06     

(X_U1.6)-2.096E-09 (X_U1.7) 19.25E-06 (X_U1.8) 19.25E-06 (X_U1.9)    0.0000     

(X_U2.6)-78.41E-09 (X_U2.7) 820.8E-06 (X_U2.8) 820.8E-06 (X_U2.9)    0.0000     

(X_U3.6)-1.034E-09 (X_U3.7) 12.55E-06 (X_U3.8) 12.55E-06 (X_U3.9)    0.0000     

(X_U4.6)-56.05E-09 (X_U4.7) 582.8E-06 (X_U4.8) 582.8E-06 (X_U4.9)    0.0000     

(X_U8.6)-12.51E-09 (X_U8.7) 109.1E-06 (X_U8.8) 109.1E-06 (X_U8.9)    0.0000     

($N_0001) 19.25E-06                   ($N_0002) 14.78E-06                       

($N_0005) 19.25E-06                   ($N_0006) 816.8E-06                       

($N_0009) 578.4E-06                   ($N_0010) 19.25E-06                       

($N_0013) 259.1E-06                   ($N_0014) 19.25E-06                       

($N_0015) 19.25E-06                   ($N_0018) 19.25E-06                       

($N_0019)-398.6E-06                   ($N_0020)    0.0000                       

($N_0021)-379.3E-06                   (X_U1.10)    -.6077                       

(X_U1.11)   19.9600                   (X_U1.12)   19.9600                       

(X_U1.13)    -.5938                   (X_U1.14)    -.5938                       

(X_U1.53)   19.0000                   (X_U1.54)  -19.0000                       

(X_U1.90) 31.32E-09                   (X_U1.91)   40.0000                       

(X_U1.92)  -40.0000                   (X_U1.99)    0.0000                       

(X_U2.10)    -.6077                   (X_U2.11)   19.9600                       

(X_U2.12)   19.9600                   (X_U2.13)    -.5938                       

(X_U2.14)    -.5938                   (X_U2.53)   19.0000                       

(X_U2.54)  -19.0000                   (X_U2.90) 79.75E-06                       

(X_U2.91)   40.0000                   (X_U2.92)  -40.0000                       

(X_U2.99)    0.0000                   (X_U3.10)    -.6077                       

(X_U3.11)   19.9600                   (X_U3.12)   19.9600                       

(X_U3.13)    -.5938                   (X_U3.14)    -.5938                       

(X_U3.53)   19.0000                   (X_U3.54)  -19.0000                       

(X_U3.90)-44.66E-06                   (X_U3.91)   40.0000                       

(X_U3.92)  -40.0000                   (X_U3.99)    0.0000                       

(X_U4.10)    -.6077                   (X_U4.11)   19.9600                       

(X_U4.12)   19.9600                   (X_U4.13)    -.5938                       

(X_U4.14)    -.5938                   (X_U4.53)   19.0000                       

(X_U4.54)  -19.0000                   (X_U4.90) 87.84E-06                       

(X_U4.91)   40.0000                   (X_U4.92)  -40.0000                       

(X_U4.99)    0.0000                   (X_U8.10)    -.6081                       

(X_U8.11)   19.9600                   (X_U8.12)   19.9600                       

(X_U8.13)    -.5942                   (X_U8.14)    -.5942                       

(X_U8.53)   19.0000                   (X_U8.54)  -19.0000                       

(X_U8.90) 202.1E-06                   (X_U8.91)   40.0000                       

(X_U8.92)  -40.0000                   (X_U8.99)    0.0000                   




    VOLTAGE SOURCE CURRENTS
    NAME         CURRENT

    V_V4        -1.109E-02
    V_V5        -1.109E-02
    V_Set_point  -3.986E-08
    X_U3.vb     -1.034E-14
    X_U3.vc      1.900E-11
    X_U3.ve      1.819E-11
    X_U3.vlim   -4.466E-08
    X_U3.vlp    -4.000E-11
    X_U3.vln    -4.000E-11
    X_U2.vb     -7.841E-13
    X_U2.vc      1.900E-11
    X_U2.ve      1.819E-11
    X_U2.vlim    7.975E-08
    X_U2.vlp    -4.000E-11
    X_U2.vln    -4.000E-11
    X_U4.vb     -5.605E-13
    X_U4.vc      1.900E-11
    X_U4.ve      1.819E-11
    X_U4.vlim    8.784E-08
    X_U4.vlp    -4.000E-11
    X_U4.vln    -4.000E-11
    X_U1.vb     -2.096E-14
    X_U1.vc      1.900E-11
    X_U1.ve      1.819E-11
    X_U1.vlim    3.132E-11
    X_U1.vlp    -4.000E-11
    X_U1.vln    -4.000E-11
    X_U8.vb     -1.251E-13
    X_U8.vc      1.900E-11
    X_U8.ve      1.819E-11
    X_U8.vlim    2.021E-07
    X_U8.vlp    -4.000E-11
    X_U8.vln    -4.000E-11

    TOTAL POWER DISSIPATION   4.44E-01  WATTS


ERROR -- Convergence problem in transient analysis at Time =  .31 
         Time step =  122.4E-15, minimum allowable step size =  400.0E-15

  These supply currents failed to converge:

    I(X_U3.vc)                =   -4.018nA  \   -3.085nA
    I(X_U3.ve)                =    2.750nA  \    2.121nA



  Last node voltages tried were:

 NODE   VOLTAGE     NODE   VOLTAGE     NODE   VOLTAGE     NODE   VOLTAGE


(  NEG)  -20.0000  (  POS)   20.0000  (ERROR)    -.9486  (output)    1.9477     

(X_U1.6) 346.2E-06 (X_U1.7)    -.5715 (X_U1.8)    -.5715 (X_U1.9)    0.0000     

(X_U2.6) 49.37E-06 (X_U2.7)    -.5188 (X_U2.8)    -.5188 (X_U2.9)    0.0000     

(X_U3.6)    -.0012 (X_U3.7)    9.1949 (X_U3.8)    9.1949 (X_U3.9)    0.0000     

(X_U4.6)    1.5279 (X_U4.7)  -21.8440 (X_U4.8)  -21.8440 (X_U4.9)    0.0000     

(X_U8.6) 118.1E-06 (X_U8.7)   -1.0481 (X_U8.8)   -1.0481 (X_U8.9)    0.0000     

($N_0001)-249.8E-06                   ($N_0002)    7.4600                       

($N_0005)-71.79E-06                   ($N_0006)    -.5162                       

($N_0009)  -19.8130                   ($N_0010)    4.0850                       

($N_0013)   -1.9327                   ($N_0014) 177.8E-06                       

($N_0015)     .9491                   ($N_0018)     .0103                       

($N_0019) 99.79E-09                   ($N_0020)    0.0000                       

($N_0021)     .4987                   (X_U1.10)    -.6076                       

(X_U1.11)   19.9600                   (X_U1.12)   19.9600                       

(X_U1.13)    -.5937                   (X_U1.14)    -.5937                       

(X_U1.53)   19.0000                   (X_U1.54)  -19.0000                       

(X_U1.90)  -30.4110                   (X_U1.91)   40.0000                       

(X_U1.92)  -40.0000                   (X_U1.99)    0.0000                       

(X_U2.10)    -.6077                   (X_U2.11)   19.9600                       

(X_U2.12)   19.9600                   (X_U2.13)    -.5938                       

(X_U2.14)    -.5938                   (X_U2.53)   19.0000                       

(X_U2.54)  -19.0000                   (X_U2.90)    -.0516                       

(X_U2.91)   40.0000                   (X_U2.92)  -40.0000                       

(X_U2.99)    0.0000                   (X_U3.10)    -.6078                       

(X_U3.11)   19.9600                   (X_U3.12)   19.9600                       

(X_U3.13)    -.5940                   (X_U3.14)    -.5939                       

(X_U3.53)   19.0000                   (X_U3.54)  -19.0000                       

(X_U3.90)   34.6980                   (X_U3.91)   40.0000                       

(X_U3.92)  -40.0000                   (X_U3.99)    0.0000                       

(X_U4.10)    3.4445                   (X_U4.11)   19.9190                       

(X_U4.12)   20.0000                   (X_U4.13)    3.4728                       

(X_U4.14)    3.4445                   (X_U4.53)   19.0000                       

(X_U4.54)  -19.0000                   (X_U4.90)  -40.6070                       

(X_U4.91)   40.0000                   (X_U4.92)  -40.0000                       

(X_U4.99)    0.0000                   (X_U8.10)    -.1409                       

(X_U8.11)   19.9600                   (X_U8.12)   19.9610                       

(X_U8.13)    -.1131                   (X_U8.14)    -.1409                       

(X_U8.53)   19.0000                   (X_U8.54)  -19.0000                       

(X_U8.90)   -1.9902                   (X_U8.91)   40.0000                       

(X_U8.92)  -40.0000                   (X_U8.99)    0.0000                   

