
**** 08/28/22 02:15:40 ********* PSpice 9.2 (Mar 2000) ******** ID# 0 ********

 * C:\Users\HP\Desktop\208 project\Plant.sch


 ****     CIRCUIT DESCRIPTION


******************************************************************************




* Schematics Version 9.2
* Sun Aug 28 02:15:35 2022



** Analysis setup **
.tran 1u 500m 0 10u


* From [PSPICE NETLIST] section of C:\Program Files\Orcad\PSpice\PSpice.ini:
.lib "nom.lib"

.INC "Plant.net"



**** INCLUDING Plant.net ****
* Schematics Netlist *



C_C1         $N_0001 0  1u  
C_C2         $N_0002 0  1u  
R_R1         $N_0003 $N_0001  10k  
R_R2         $N_0001 $N_0002  10k  
V_V3         $N_0003 0  
+PULSE 0 1 0.5m 1n 1n 500m 1000m

**** RESUMING Plant.cir ****
.PROBE V(*) I(*) W(*) D(*) NOISE(*) 


.END

**** 08/28/22 02:15:40 ********* PSpice 9.2 (Mar 2000) ******** ID# 0 ********

 * C:\Users\HP\Desktop\208 project\Plant.sch


 ****     INITIAL TRANSIENT SOLUTION       TEMPERATURE =   27.000 DEG C


******************************************************************************



 NODE   VOLTAGE     NODE   VOLTAGE     NODE   VOLTAGE     NODE   VOLTAGE


($N_0001)    0.0000                   ($N_0002)    0.0000                       

($N_0003)    0.0000                   




    VOLTAGE SOURCE CURRENTS
    NAME         CURRENT

    V_V3         0.000E+00

    TOTAL POWER DISSIPATION   0.00E+00  WATTS



          JOB CONCLUDED

          TOTAL JOB TIME            1.47
